/*--------------------------------*- C++ -*----------------------------------*\
| =========                 |                                                 |
| \\      /  F ield         | OpenFOAM: The Open Source CFD Toolbox           |
|  \\    /   O peration     | Version:  2.3.0                                 |
|   \\  /    A nd           | Web:      www.OpenFOAM.org                      |
|    \\/     M anipulation  |                                                 |
\*---------------------------------------------------------------------------*/
FoamFile
{
    version     2.0;
    format      ascii;
    class       volScalarField;
    location    "0";
    object      epsilon;
}
// * * * * * * * * * * * * * * * * * * * * * * * * * * * * * * * * * * * * * //

//Settings for boundary conditions for epsilon

dimensions      [0 2 -3 0 0 0 0];

internalField   uniform 0.000765;

boundaryField
{
    movingWall
    {
        type            epsilonWallFunction;
        value           uniform 0.000765;
    }
    fixedWalls
    {
        type            epsilonWallFunction;
        /*
            The initial Values of k and epsilon are set using an estimated fluctuating component of velocity "U'" and a turbulent length scale, "l". For the calculation formulas refer to the section 2.1.8 in http://www.openfoam.org/docs/user/cavity.php#x5-9016r2 .
        */
        value           uniform 0.000765;
    }
    frontAndBack
    {
        type            empty;
    }
}


// ************************************************************************* //
