/*--------------------------------*- C++ -*----------------------------------*\
| =========                 |                                                 |
| \\      /  F ield         | OpenFOAM: The Open Source CFD Toolbox           |
|  \\    /   O peration     | Version:  2.3.0                                 |
|   \\  /    A nd           | Web:      www.OpenFOAM.org                      |
|    \\/     M anipulation  |                                                 |
\*---------------------------------------------------------------------------*/
FoamFile
{
    version     2.0;
    format      ascii;
    class       dictionary;
    location    "system";
    object      controlDict;
}
// * * * * * * * * * * * * * * * * * * * * * * * * * * * * * * * * * * * * * //

application     icoFoam;

startFrom       startTime;

//Here the start time is zero, and it indicates that OpenFoam should read the initial conditions from the files existing in the folder entitled "0". OpenFoam automatically does it.
startTime       0;

//endTime refer to another variable specified one line below.
//There are different conditions/constrols for ending the simulation. 
stopAt          endTime;

//Since the case is starting with a the solution obtained on the coarse mesh we only need to run it for a short period to achieve reasonable convergence to steady-state. Therefore the endTime should be set to 0.7 s. This came from experience!
endTime         0.7;

//Since the mesh is finer now, the time increment should be halved.
deltaT          0.0025;

//Using the option "runTime" OpenFOAM asks user to input the interval for writing data to the disk.
//To gain similar intervals, user should set 0.1 as the writingInterval.
writeControl    runTime;
//But not at each time step (it will be huge data!). At every 20 time steps OpenFoam writes the data to the disk.
writeInterval   20;

purgeWrite      0;

writeFormat     ascii;

writePrecision  6;

writeCompression off;

timeFormat      general;

timePrecision   6;

runTimeModifiable true;


// ************************************************************************* //
